OPT_V9/Results/My_campus_w_initial_sub_3_active_27_03_15_53/network_debug.txt
Pandapower Network Debug Info
==================================================

BUS:
          name  vn_kv type  zone  in_service   geo
0        Bus 8    0.4    b  None        True  None
1        Bus 9    0.4    b  None        True  None
2       Bus 10    0.4    b  None        True  None
3       Bus 11    0.4    b  None        True  None
4       Bus 16    0.4    b  None        True  None
5       Bus 17    0.4    b  None        True  None
6       Bus 18    0.4    b  None        True  None
7       Bus 19    0.4    b  None        True  None
8       Bus 20    0.4    b  None        True  None
9       Bus 21   15.0    b  None        True  None
10      Bus 22   15.0    b  None        True  None
11      Bus 23   15.0    b  None        True  None
12      Bus 24   15.0    b  None        True  None
13      Bus 25   15.0    b  None        True  None
14      Bus 26   15.0    b  None        True  None
15    Sub MV 2   15.0    b  None        True  None
16    Sub LV 2    0.4    b  None        True  None
17    Sub MV 5   15.0    b  None        True  None
18    Sub LV 5    0.4    b  None        True  None
19  Slack HV 0   70.0    b  None        True  None
20  Slack MV 0   15.0    b  None        True  None
21  Slack HV 1   70.0    b  None        True  None
22  Slack MV 1   15.0    b  None        True  None
--------------------------------------------------

LOAD:
          name  bus      p_mw    q_mvar  const_z_percent  const_i_percent  sn_mva  scaling  in_service type
0    Load 8 T1    0 -0.003556 -0.003541              0.0              0.0     NaN      1.0        True  wye
1    Load 8 T2    0 -0.006198 -0.006026              0.0              0.0     NaN      1.0        True  wye
2    Load 9 T1    1 -0.004073 -0.000007              0.0              0.0     NaN      1.0        True  wye
3    Load 9 T2    1 -0.002383 -0.000005              0.0              0.0     NaN      1.0        True  wye
4   Load 10 T1    2 -0.003232  0.000000              0.0              0.0     NaN      1.0        True  wye
5   Load 10 T2    2 -0.002694  0.000868              0.0              0.0     NaN      1.0        True  wye
6   Load 11 T1    3 -0.003066  0.000000              0.0              0.0     NaN      1.0        True  wye
7   Load 11 T2    3 -0.001950  0.000000              0.0              0.0     NaN      1.0        True  wye
8   Load 16 T1    4 -0.003393  0.000861              0.0              0.0     NaN      1.0        True  wye
9   Load 16 T2    4 -0.001955  0.000943              0.0              0.0     NaN      1.0        True  wye
10  Load 17 T1    5 -0.000973  0.001336              0.0              0.0     NaN      1.0        True  wye
11  Load 17 T2    5 -0.001468  0.001841              0.0              0.0     NaN      1.0        True  wye
12  Load 18 T1    6 -0.004182 -0.000754              0.0              0.0     NaN      1.0        True  wye
13  Load 18 T2    6 -0.001950 -0.002288              0.0              0.0     NaN      1.0        True  wye
14  Load 19 T1    7 -0.003239 -0.001311              0.0              0.0     NaN      1.0        True  wye
15  Load 19 T2    7 -0.002953 -0.002770              0.0              0.0     NaN      1.0        True  wye
16  Load 20 T1    8 -0.001954 -0.002902              0.0              0.0     NaN      1.0        True  wye
17  Load 20 T2    8 -0.004324 -0.003052              0.0              0.0     NaN      1.0        True  wye
18  Load 21 T1    9 -0.001711  0.008720              0.0              0.0     NaN      1.0        True  wye
19  Load 21 T2    9  0.008493  0.008514              0.0              0.0     NaN      1.0        True  wye
20  Load 22 T1   10  0.000004  0.007915              0.0              0.0     NaN      1.0        True  wye
21  Load 22 T2   10  0.010411  0.008342              0.0              0.0     NaN      1.0        True  wye
22  Load 23 T1   11  0.010004  0.005086              0.0              0.0     NaN      1.0        True  wye
23  Load 23 T2   11  0.002382  0.004617              0.0              0.0     NaN      1.0        True  wye
24  Load 24 T1   12  0.000728  0.005086              0.0              0.0     NaN      1.0        True  wye
25  Load 24 T2   12  0.010144  0.003710              0.0              0.0     NaN      1.0        True  wye
26  Load 25 T1   13  0.009156  0.005434              0.0              0.0     NaN      1.0        True  wye
27  Load 25 T2   13  0.007049  0.003952              0.0              0.0     NaN      1.0        True  wye
28  Load 26 T1   14  0.009488  0.000000              0.0              0.0     NaN      1.0        True  wye
29  Load 26 T2   14  0.003551  0.002774              0.0              0.0     NaN      1.0        True  wye
--------------------------------------------------

EXT_GRID:
        name  bus  vm_pu  va_degree  slack_weight  in_service
0  ExtGrid 0   19    1.0        0.0           1.0        True
1  ExtGrid 1   21    1.0        0.0           1.0        True
--------------------------------------------------

LINE:
       name std_type  from_bus  to_bus  length_km  r_ohm_per_km  x_ohm_per_km  c_nf_per_km  g_us_per_km  max_i_ka   df  parallel  type  in_service   geo
0    Line 0     None        20      15   0.400000        0.5502         0.429          0.0          0.0      0.23  1.0         1  None        True  None
1    Line 7     None        22      17   1.100000        0.5502         0.429          0.0          0.0      0.23  1.0         1  None        True  None
2    Line 8     None        15       9   0.316228        0.5502         0.429          0.0          0.0      0.23  1.0         1  None        True  None
3   Line 17     None        17      12   0.141421        0.5502         0.429          0.0          0.0      0.23  1.0         1  None        True  None
4   Line 18     None        17      13   0.223607        0.5502         0.429          0.0          0.0      0.23  1.0         1  None        True  None
5   Line 20     None        16       0   0.136015        0.5502         0.429          0.0          0.0      0.23  1.0         1  None        True  None
6   Line 34     None        18       5   0.225610        0.5502         0.429          0.0          0.0      0.23  1.0         1  None        True  None
7   Line 36     None        18       7   0.196469        0.5502         0.429          0.0          0.0      0.23  1.0         1  None        True  None
8   Line 37     None        18       8   0.050000        0.5502         0.429          0.0          0.0      0.23  1.0         1  None        True  None
9   Line 38     None        10       9   0.141421        0.5502         0.429          0.0          0.0      0.23  1.0         1  None        True  None
10  Line 40     None        11      10   0.200000        0.5502         0.429          0.0          0.0      0.23  1.0         1  None        True  None
11  Line 43     None        14      13   0.200000        0.5502         0.429          0.0          0.0      0.23  1.0         1  None        True  None
12  Line 44     None         1       0   0.172047        0.5502         0.429          0.0          0.0      0.23  1.0         1  None        True  None
13  Line 46     None         3       0   0.194165        0.5502         0.429          0.0          0.0      0.23  1.0         1  None        True  None
14  Line 47     None         2       1   0.263059        0.5502         0.429          0.0          0.0      0.23  1.0         1  None        True  None
15  Line 52     None         8       4   0.353836        0.5502         0.429          0.0          0.0      0.23  1.0         1  None        True  None
16  Line 53     None         6       5   0.253180        0.5502         0.429          0.0          0.0      0.23  1.0         1  None        True  None
--------------------------------------------------

TRAFO:
                  name std_type  hv_bus  lv_bus  sn_mva  vn_hv_kv  vn_lv_kv  vk_percent  vkr_percent  pfe_kw  i0_percent  shift_degree tap_side  tap_neutral  tap_min  tap_max  tap_step_percent  tap_step_degree  tap_pos tap_changer_type  id_characteristic_table  tap_dependency_table  parallel   df  in_service
0  MV/LV Transformer 2     None      15      16    10.0      15.0       0.4        0.01         0.01    0.01        0.01           0.0     None          NaN      NaN      NaN               NaN              NaN      NaN              NaN                     <NA>                 False         1  1.0        True
1  MV/LV Transformer 5     None      17      18    10.0      15.0       0.4        0.01         0.01    0.01        0.01           0.0     None          NaN      NaN      NaN               NaN              NaN      NaN              NaN                     <NA>                 False         1  1.0        True
2  Slack Transformer 0     None      19      20    40.0      70.0      15.0        0.01         0.01    0.01        0.01           0.0     None          NaN      NaN      NaN               NaN              NaN      NaN              NaN                     <NA>                 False         1  1.0        True
3  Slack Transformer 1     None      21      22    40.0      70.0      15.0        0.01         0.01    0.01        0.01           0.0     None          NaN      NaN      NaN               NaN              NaN      NaN              NaN                     <NA>                 False         1  1.0        True
--------------------------------------------------

RES_BUS:
       vm_pu  va_degree      p_mw    q_mvar
0   1.007962   0.137501 -0.006198 -0.006026
1   1.010530   0.297946 -0.002383 -0.000005
2   1.012328   0.448346 -0.002694  0.000868
3   1.009252   0.194693 -0.001950  0.000000
4   1.002800   0.198668 -0.001955  0.000943
5   1.002869   0.098295 -0.001468  0.001841
6   1.006101   0.060345 -0.001950 -0.002288
7   1.003407  -0.018062 -0.002953 -0.002770
8   1.001324   0.027380 -0.004324 -0.003052
9   0.999949   0.000836  0.008493  0.008514
10  0.999941   0.000895  0.010411  0.008342
11  0.999938   0.000973  0.002382  0.004617
12  0.999961  -0.000114  0.010144  0.003710
13  0.999957  -0.000079  0.007049  0.003952
14  0.999954  -0.000079  0.003551  0.002774
15  0.999979   0.000620  0.000000  0.000000
16  0.999979   0.000618  0.000000  0.000000
17  0.999965  -0.000031  0.000000  0.000000
18  0.999965  -0.000034  0.000000  0.000000
19  1.000000   0.000000 -0.008200 -0.021402
20  1.000000   0.000003  0.000000  0.000000
21  1.000000   0.000000 -0.008155 -0.010141
22  1.000000   0.000001  0.000000  0.000000
--------------------------------------------------

RES_LINE:
    p_from_mw   q_from_mvar   p_to_mw  q_to_mvar         pl_mw       ql_mvar  i_from_ka   i_to_ka      i_ka  vm_from_pu  va_from_degree  vm_to_pu  va_to_degree  loading_percent
0    0.008190  1.740198e-02 -0.008189  -0.017402  3.618094e-07  2.821088e-07   0.000740  0.000740  0.000740    1.000000        0.000003  0.999979      0.000620         0.321856
1    0.008145  6.140868e-03 -0.008145  -0.006141  2.798754e-07  2.182235e-07   0.000393  0.000393  0.000393    1.000000        0.000001  0.999965     -0.000031         0.170701
2    0.021287  2.147340e-02 -0.021286  -0.021473  7.069854e-07  5.512482e-07   0.001164  0.001164  0.001164    0.999979        0.000620  0.999949      0.000836         0.506007
3    0.010144  3.709591e-03 -0.010144  -0.003710  4.034550e-08  3.145805e-08   0.000416  0.000416  0.000416    0.999965       -0.000031  0.999961     -0.000114         0.180755
4    0.010600  6.725719e-03 -0.010600  -0.006726  8.618229e-08  6.719775e-08   0.000483  0.000483  0.000483    0.999965       -0.000031  0.999957     -0.000079         0.210096
5   -0.013107 -5.071609e-03  0.013200   0.005144  9.239062e-05  7.203849e-05   0.020286  0.020286  0.020286    0.999979        0.000618  1.007962      0.137501         8.820075
6   -0.003402 -4.342357e-04  0.003411   0.000441  9.125711e-06  7.115467e-06   0.004950  0.004950  0.004950    0.999965       -0.000034  1.002869      0.098295         2.152312
7   -0.002942 -2.760980e-03  0.002953   0.002770  1.099727e-05  8.574756e-06   0.005823  0.005823  0.005823    0.999965       -0.000034  1.003407     -0.018062         2.531902
8   -0.006266 -2.099326e-03  0.006273   0.002105  7.508982e-06  5.854877e-06   0.009539  0.009539  0.009539    0.999965       -0.000034  1.001324      0.027380         4.147217
9   -0.012793 -1.295857e-02  0.012793   0.012959  1.146794e-07  8.941740e-08   0.000701  0.000701  0.000701    0.999941        0.000895  0.999949      0.000836         0.304745
10  -0.002382 -4.616600e-03  0.002382   0.004617  1.319923e-08  1.029166e-08   0.000200  0.000200  0.000200    0.999938        0.000973  0.999941      0.000895         0.086938
11  -0.003551 -2.773846e-03  0.003551   0.002774  9.930305e-09  7.742823e-09   0.000173  0.000173  0.000173    0.999954       -0.000079  0.999957     -0.000079         0.075408
12   0.005069 -8.684366e-04 -0.005054   0.000880  1.532593e-05  1.194988e-05   0.007346  0.007346  0.007346    1.010530        0.297946  1.007962      0.137501         3.194050
13   0.001950  8.083324e-10 -0.001948   0.000002  2.493794e-06  1.944452e-06   0.002789  0.002789  0.002789    1.009252        0.194693  1.007962      0.137501         1.212820
14   0.002694 -8.683261e-04 -0.002686   0.000874  7.069621e-06  5.512300e-06   0.004035  0.004035  0.004035    1.012328        0.448346  1.010530      0.297946         1.754376
15  -0.001949  9.471190e-04  0.001955  -0.000943  5.700319e-06  4.444632e-06   0.003124  0.003124  0.003124    1.001324        0.027380  1.002800      0.198668         1.358313
16   0.001950  2.288444e-03 -0.001943  -0.002282  7.776464e-06  6.063437e-06   0.004314  0.004314  0.004314    1.006101        0.060345  1.002869      0.098295         1.875546
--------------------------------------------------

RES_TRAFO:
    p_hv_mw  q_hv_mvar   p_lv_mw  q_lv_mvar    pl_mw  ql_mvar   i_hv_ka   i_lv_ka  vm_hv_pu  va_hv_degree  vm_lv_pu  va_lv_degree  loading_percent
0 -0.013097  -0.004072  0.013107   0.005072  0.00001    0.001  0.000528  0.020286  0.999979      0.000620  0.999979      0.000618         0.140547
1 -0.012600  -0.004295  0.012610   0.005295  0.00001    0.001  0.000512  0.019740  0.999965     -0.000031  0.999965     -0.000034         0.136765
2  0.008200   0.021402 -0.008190  -0.017402  0.00001    0.004  0.000189  0.000740  1.000000      0.000000  1.000000      0.000003         0.057297
3  0.008155   0.010141 -0.008145  -0.006141  0.00001    0.004  0.000107  0.000393  1.000000      0.000000  1.000000      0.000001         0.032532
--------------------------------------------------

RES_EXT_GRID:
       p_mw    q_mvar
0  0.008200  0.021402
1  0.008155  0.010141
--------------------------------------------------

RES_LOAD:
        p_mw    q_mvar
0  -0.000000 -0.000000
1  -0.006198 -0.006026
2  -0.000000 -0.000000
3  -0.002383 -0.000005
4  -0.000000  0.000000
5  -0.002694  0.000868
6  -0.000000  0.000000
7  -0.001950  0.000000
8  -0.000000  0.000000
9  -0.001955  0.000943
10 -0.000000  0.000000
11 -0.001468  0.001841
12 -0.000000 -0.000000
13 -0.001950 -0.002288
14 -0.000000 -0.000000
15 -0.002953 -0.002770
16 -0.000000 -0.000000
17 -0.004324 -0.003052
18 -0.000000  0.000000
19  0.008493  0.008514
20  0.000000  0.000000
21  0.010411  0.008342
22  0.000000  0.000000
23  0.002382  0.004617
24  0.000000  0.000000
25  0.010144  0.003710
26  0.000000  0.000000
27  0.007049  0.003952
28  0.000000  0.000000
29  0.003551  0.002774
--------------------------------------------------

BUS_GEODATA:
        x      y
0    11.0   48.0
1    25.0   38.0
2    51.0   42.0
3     0.0   64.0
4   129.0  138.0
5   105.0   88.0
6   130.0   92.0
7    81.0  115.0
8   103.0  114.0
9    10.0   70.0
10   20.0   80.0
11   40.0   80.0
12   90.0  120.0
13  120.0  120.0
14  120.0  100.0
15    0.0   40.0
16    0.5   39.5
17  100.0  110.0
18  100.5  109.5
19    0.0    0.0
20    0.5   -0.5
21  100.0    0.0
22  100.5   -0.5
--------------------------------------------------
